R1 N003 N001 1
R2 N004 N003 1
R3 N002 N004 1
R4 N006 N005 1
R5 N007 N006 1
R6 0 N007 1
R7 N005 N001 1
R8 N006 N003 1
R9 N007 N004 1
R10 0 N002 1
R11 N002 N001 1
R12 0 N005 1
V1 N001 N005 3 Rser=1
V2 N002 0 1 Rser=1
.tran 0 100ms 0ms 1ms
.backanno
.end
